Version 4
SHEET 1 1252 1280
WIRE 16 -16 16 -64
WIRE -736 0 -736 -48
WIRE -736 144 -736 80
WIRE 16 144 16 64
WIRE -448 176 -560 176
WIRE -224 192 -384 192
WIRE -48 192 -144 192
WIRE -448 208 -688 208
WIRE -560 320 -560 176
WIRE 16 320 16 240
WIRE 16 320 -560 320
WIRE -736 336 -736 272
WIRE 16 336 16 320
FLAG 16 416 0
FLAG 16 -144 0
FLAG -736 416 0
FLAG -736 -128 0
SYMBOL res -128 208 M270
WINDOW 0 32 56 VTop 2
WINDOW 3 0 56 VBottom 2
SYMATTR InstName R1
SYMATTR Value 100
SYMBOL res 0 320 R0
SYMATTR InstName R2
SYMATTR Value 250
SYMBOL res 0 -32 R0
SYMATTR InstName R3
SYMATTR Value 100
SYMBOL OpAmps\\opamp2 -416 128 R0
SYMATTR InstName U1
SYMATTR Value TL061
SYMBOL npn -48 144 R0
SYMATTR InstName Q1
SYMATTR Value 2N2222
SYMBOL voltage 16 -48 R180
WINDOW 0 24 96 Left 2
WINDOW 3 24 16 Left 2
WINDOW 123 0 0 Left 0
WINDOW 39 0 0 Left 0
SYMATTR InstName V1
SYMATTR Value 24
SYMBOL voltage -736 -32 R180
WINDOW 0 24 96 Left 2
WINDOW 3 24 16 Left 2
WINDOW 123 0 0 Left 0
WINDOW 39 0 0 Left 0
SYMATTR InstName V2
SYMATTR Value 24
SYMBOL Potentiometer -736 208 R0
SYMATTR InstName X1
SYMBOL res -752 320 R0
SYMATTR InstName R4
SYMATTR Value 100
SYMBOL res -752 -16 R0
SYMATTR InstName R5
SYMATTR Value 40k
TEXT 344 96 Left 2 !* TL061 OPERATIONAL AMPLIFIER "MACROMODEL" SUBCIRCUIT\n* CREATED USING PARTS RELEASE 4.01 ON 06/28/89 AT 10:42\n* (REV N/A)      SUPPLY VOLTAGE: +/-15V\n* CONNECTIONS:   NON-INVERTING INPUT\n*                | INVERTING INPUT\n*                | | POSITIVE POWER SUPPLY\n*                | | | NEGATIVE POWER SUPPLY\n*                | | | | OUTPUT\n*                | | | | |\n.SUBCKT TL061    1 2 3 4 5\n*\n  C1   11 12 3.498E-12\n  C2    6  7 15.00E-12\n  DC    5 53 DX\n  DE   54  5 DX\n  DLP  90 91 DX\n  DLN  92 90 DX\n  DP    4  3 DX\n  EGND 99  0 POLY(2) (3,0) (4,0) 0 .5 .5\n  FB    7 99 POLY(5) VB VC VE VLP VLN 0 318.3E3 -300E3 300E3 300E3 -300E3\n  GA    6  0 11 12 94.26E-6\n  GCM 0  6 10 99 1.607E-9\n  ISS   3 10 DC 52.50E-6\n  HLIM 90  0 VLIM 1K\n  J1   11  2 10 JX\n  J2   12  1 10 JX\n  R2    6  9 100.0E3\n  RD1   4 11 10.61E3\n  RD2   4 12 10.61E3\n  RO1   8  5 200\n  RO2   7 99 200\n  RP    3  4 150.0E3\n  RSS  10 99 3.810E6\n  VB    9  0 DC 0\n  VC    3 53 DC 2.200\n  VE   54  4 DC 2.200\n  VLIM  7  8 DC 0\n  VLP  91  0 DC 15\n  VLN   0 92 DC 15\n.MODEL DX D(IS=800.0E-18)\n.MODEL JX PJF(IS=15.00E-12 BETA=100.5E-6 VTO=-1)\n.ENDS
TEXT -792 1264 Left 2 !.tran 1
