Version 4
SHEET 1 880 680
WIRE -48 -112 -112 -112
WIRE -16 -112 -48 -112
WIRE -48 -64 -48 -112
WIRE -48 -64 -80 -64
WIRE 256 -64 192 -64
WIRE 192 -32 192 -64
WIRE 256 -32 256 -64
WIRE -336 32 -336 -32
WIRE 256 80 256 48
WIRE -336 128 -336 112
WIRE 256 128 256 80
WIRE -144 160 -208 160
WIRE 48 176 -80 176
WIRE 192 176 128 176
WIRE -240 192 -288 192
WIRE -144 192 -240 192
WIRE 256 256 256 224
WIRE -336 272 -336 256
WIRE -208 272 -208 160
WIRE 256 272 256 256
WIRE 256 272 -208 272
WIRE 256 320 256 272
WIRE -336 368 -336 352
WIRE 256 448 256 400
FLAG 192 -32 0
FLAG 256 528 0
FLAG -336 368 0
FLAG -336 -112 0
FLAG -240 192 Uster
FLAG 256 80 kolektor
FLAG 256 256 emiter
FLAG -80 -64 0
FLAG 64 -112 +Vcc
FLAG -112 144 +Vcc
FLAG -192 -112 -Vcc
FLAG -112 208 -Vcc
SYMBOL res 240 304 R0
WINDOW 3 36 68 Left 2
SYMATTR Value 250
SYMATTR InstName Rpom
SYMBOL res 240 -48 R0
WINDOW 3 36 68 Left 2
SYMATTR Value {Robc}
SYMATTR InstName Robc
SYMBOL res 144 160 R90
WINDOW 0 0 56 VBottom 2
WINDOW 3 32 56 VTop 2
SYMATTR InstName R3
SYMATTR Value 100
SYMBOL res -352 16 R0
WINDOW 3 36 68 Left 2
SYMATTR Value 250
SYMATTR InstName R1
SYMBOL res -352 256 R0
WINDOW 3 36 68 Left 2
SYMATTR Value 4.75k
SYMATTR InstName R2
SYMBOL Potentiometer -336 192 R0
WINDOW 0 35 -66 Left 2
WINDOW 39 35 -38 Left 1
SYMATTR InstName Rpot
SYMATTR SpiceLine R=1k,Val={V}
SYMBOL pnp 192 128 R0
SYMATTR InstName Q1
SYMATTR Value 2N2907
SYMBOL voltage 256 432 R0
WINDOW 123 0 0 Left 0
WINDOW 39 0 0 Left 0
SYMATTR InstName V1
SYMATTR Value 24
SYMBOL OpAmps\\UniversalOpamp2 -112 176 R0
SYMATTR InstName U1
SYMBOL voltage -336 -16 R180
WINDOW 0 24 96 Left 2
WINDOW 3 24 16 Left 2
WINDOW 123 0 0 Left 0
WINDOW 39 0 0 Left 0
SYMATTR InstName V2
SYMATTR Value 24
SYMBOL voltage 80 -112 R90
WINDOW 0 24 96 Left 2
WINDOW 3 24 16 Left 2
WINDOW 123 0 0 Left 0
WINDOW 39 0 0 Left 0
SYMATTR InstName V3
SYMATTR Value 24
SYMBOL voltage -96 -112 R90
WINDOW 0 24 96 Left 2
WINDOW 3 24 16 Left 2
WINDOW 123 0 0 Left 0
WINDOW 39 0 0 Left 0
SYMATTR InstName V4
SYMATTR Value 24
TEXT -144 -16 Left 2 !.param V=99
TEXT -144 8 Left 2 !.op
TEXT -224 56 Left 2 !.step param Robc 1 1k 10
