Version 4
SHEET 1 880 680
WIRE 256 64 240 64
WIRE 368 64 368 32
WIRE 368 64 336 64
WIRE 240 112 240 64
WIRE 368 112 240 112
WIRE -32 128 -32 112
WIRE 368 144 368 112
WIRE 160 160 160 128
WIRE 32 176 16 176
WIRE 128 176 32 176
WIRE 208 192 192 192
WIRE 304 192 288 192
WIRE 128 208 96 208
WIRE -32 224 -32 208
WIRE -272 256 -272 240
WIRE -192 256 -192 240
WIRE 96 256 96 208
WIRE 368 256 368 240
WIRE 368 256 96 256
WIRE 160 288 160 224
WIRE -272 352 -272 336
WIRE -192 352 -192 336
WIRE -32 352 -32 304
WIRE 368 352 368 336
FLAG -192 240 24V
FLAG -32 32 24V
FLAG 368 32 24V
FLAG -272 240 -24V
FLAG 160 128 -24V
FLAG 160 288 24V
FLAG -192 352 0
FLAG -272 352 0
FLAG 368 352 0
FLAG -32 352 0
FLAG 304 192 B
FLAG 368 240 C
FLAG 368 144 E
FLAG 32 176 Ust
SYMBOL res -48 16 R0
SYMATTR InstName R1
SYMATTR Value 22k
SYMBOL res -48 208 R0
SYMATTR InstName R2
SYMATTR Value 400
SYMBOL Pot&Sw\\pot -48 112 R0
SYMATTR InstName U1
SYMATTR Value Rt=1k6 set={set}
SYMBOL voltage -192 240 R0
WINDOW 123 0 0 Left 0
WINDOW 39 0 0 Left 0
SYMATTR InstName V1
SYMATTR Value 24V
SYMBOL voltage -272 352 R180
WINDOW 0 24 96 Left 2
WINDOW 3 24 16 Left 2
WINDOW 123 0 0 Left 0
WINDOW 39 0 0 Left 0
SYMATTR InstName V2
SYMATTR Value 24V
SYMBOL npn 304 144 R0
SYMATTR InstName Q1
SYMBOL res 304 176 R90
WINDOW 0 0 56 VBottom 2
WINDOW 3 32 56 VTop 2
SYMATTR InstName R
SYMATTR Value 100
SYMBOL res 352 48 R90
WINDOW 0 0 56 VBottom 2
WINDOW 3 32 56 VTop 2
SYMATTR InstName Rob
SYMATTR Value {Rob}
SYMBOL res 384 352 R180
WINDOW 0 36 76 Left 2
WINDOW 3 36 40 Left 2
SYMATTR InstName Rpom
SYMATTR Value {Rp}
SYMBOL Opamps\\UniversalOpamp 160 192 M180
SYMATTR InstName U2
TEXT -360 0 Left 2 !.op\n.param Rob 1k\n.param Rp 100\n.step param set 0 1 0.5
