Version 4
SHEET 1 880 680
WIRE -32 32 -32 0
WIRE 384 96 384 80
WIRE 384 96 96 96
WIRE 384 112 384 96
WIRE -32 128 -32 112
WIRE 176 128 176 64
WIRE 96 144 96 96
WIRE 144 144 96 144
WIRE 224 160 208 160
WIRE 320 160 304 160
WIRE 32 176 16 176
WIRE 144 176 32 176
WIRE 176 208 176 192
WIRE -32 224 -32 208
WIRE -272 256 -272 240
WIRE -192 256 -192 240
WIRE 272 272 240 272
WIRE 384 272 384 208
WIRE 384 272 352 272
WIRE 240 320 240 272
WIRE 384 320 240 320
WIRE -272 352 -272 336
WIRE -192 352 -192 336
WIRE -32 352 -32 304
WIRE 384 352 384 320
FLAG -192 240 24V
FLAG -32 0 24V
FLAG -272 240 -24V
FLAG -192 352 0
FLAG -272 352 0
FLAG -32 352 0
FLAG 32 176 Ust
FLAG 176 208 -24V
FLAG 176 64 24V
FLAG 384 0 24V
FLAG 384 352 0
FLAG 384 208 C
FLAG 384 112 E
SYMBOL res -48 16 R0
SYMATTR InstName R1
SYMATTR Value 400
SYMBOL res -48 208 R0
SYMATTR InstName R2
SYMATTR Value 22k
SYMBOL Pot&Sw\\pot -48 112 R0
SYMATTR InstName U1
SYMATTR Value Rt=1k6 set={set}
SYMBOL voltage -192 240 R0
WINDOW 123 0 0 Left 0
WINDOW 39 0 0 Left 0
SYMATTR InstName V1
SYMATTR Value 24V
SYMBOL voltage -272 352 R180
WINDOW 0 24 96 Left 2
WINDOW 3 24 16 Left 2
WINDOW 123 0 0 Left 0
WINDOW 39 0 0 Left 0
SYMATTR InstName V2
SYMATTR Value 24V
SYMBOL Opamps\\UniversalOpamp 176 160 R0
SYMATTR InstName U2
SYMBOL res 320 144 R90
WINDOW 0 0 56 VBottom 2
WINDOW 3 32 56 VTop 2
SYMATTR InstName R
SYMATTR Value 100
SYMBOL res 368 -16 R0
SYMATTR InstName Rp
SYMATTR Value {Rp}
SYMBOL res 368 256 R90
WINDOW 0 0 56 VBottom 2
WINDOW 3 32 56 VTop 2
SYMATTR InstName Rob
SYMATTR Value {Rob}
SYMBOL pnp 320 208 M180
SYMATTR InstName Q1
TEXT -344 -24 Left 2 !.op\n.param Rp 100\n.param Rob 1k\n.step param set 0 1 0.1
