Version 4
SHEET 1 1040 680
WIRE 128 -48 32 -48
WIRE 768 -48 624 -48
WIRE 32 -16 32 -48
WIRE 128 -16 128 -48
WIRE 624 -16 624 -48
WIRE 352 0 272 0
WIRE 272 16 272 0
WIRE 352 16 352 0
WIRE 32 96 32 64
WIRE 128 160 128 64
WIRE 624 160 624 64
WIRE 272 176 272 96
WIRE 240 192 192 192
WIRE 416 208 304 208
WIRE 560 208 496 208
WIRE 240 224 176 224
WIRE 192 304 192 192
WIRE 624 304 624 256
WIRE 624 304 192 304
WIRE 272 336 272 240
WIRE 624 384 624 304
WIRE 128 416 128 288
WIRE 624 512 624 464
WIRE 128 528 128 496
FLAG 128 528 0
FLAG 624 512 0
FLAG 32 96 0
FLAG 768 32 0
FLAG 352 16 0
FLAG 272 416 0
SYMBOL res 112 -32 R0
SYMATTR InstName R1
SYMATTR Value 5950
SYMBOL res 112 400 R0
SYMATTR InstName R2
SYMATTR Value 10
SYMBOL res 512 192 R90
WINDOW 0 0 56 VBottom 2
WINDOW 3 32 56 VTop 2
SYMATTR InstName R3
SYMATTR Value 100
SYMBOL npn 560 160 R0
SYMATTR InstName Q1
SYMBOL res 608 368 R0
WINDOW 3 35 67 Left 2
SYMATTR Value 10
SYMATTR InstName Rpom
SYMBOL res 608 -32 R0
SYMATTR InstName Robc
SYMATTR Value 1000
SYMBOL voltage 32 -32 R0
WINDOW 123 0 0 Left 0
WINDOW 39 0 0 Left 0
SYMATTR InstName V1
SYMATTR Value 24
SYMBOL Potentiometer 128 224 R0
SYMATTR InstName x1
SYMATTR SpiceLine R=40,Val=50
SYMBOL voltage 768 -64 R0
WINDOW 123 0 0 Left 0
WINDOW 39 0 0 Left 0
SYMATTR InstName V2
SYMATTR Value 24
SYMBOL voltage 272 112 R180
WINDOW 123 0 0 Left 0
WINDOW 39 0 0 Left 0
SYMATTR InstName V3
SYMATTR Value 24
SYMBOL voltage 272 432 R180
WINDOW 123 0 0 Left 0
WINDOW 39 0 0 Left 0
SYMATTR InstName V4
SYMATTR Value 24
SYMBOL Opamps\\UniversalOpamp2 272 208 R0
SYMATTR InstName U2
TEXT 40 200 Left 2 ;Rpot
TEXT -232 560 Left 2 !.op
TEXT -440 608 Left 2 !.step param Rob 1 1981 1
TEXT -24 200 Left 2 ;Val
