Version 4
SHEET 1 1040 680
WIRE 128 -48 32 -48
WIRE 400 -48 272 -48
WIRE 624 -48 496 -48
WIRE 32 -16 32 -48
WIRE 128 -16 128 -48
WIRE 272 -16 272 -48
WIRE 496 -16 496 -48
WIRE 624 -16 624 -48
WIRE 32 96 32 64
WIRE 400 96 400 -48
WIRE 496 96 496 64
WIRE 128 160 128 64
WIRE 624 160 624 64
WIRE 272 176 272 64
WIRE 240 192 192 192
WIRE 416 208 304 208
WIRE 560 208 496 208
WIRE 240 224 176 224
WIRE 192 304 192 192
WIRE 624 304 624 256
WIRE 624 304 192 304
WIRE 128 416 128 288
WIRE 272 416 272 240
WIRE 624 416 624 304
WIRE 128 528 128 496
WIRE 272 528 272 496
WIRE 624 528 624 496
FLAG 128 528 0
FLAG 624 528 0
FLAG 32 96 0
FLAG 496 96 0
FLAG 400 96 0
FLAG 272 528 0
FLAG 224 256 Vn009
FLAG 672 320 Vn006
FLAG 672 128 Vn004
SYMBOL res 112 -32 R0
SYMATTR InstName R1
SYMATTR Value 5500
SYMBOL res 112 400 R0
SYMATTR InstName R2
SYMATTR Value 100
SYMBOL res 512 192 R90
WINDOW 0 0 56 VBottom 2
WINDOW 3 32 56 VTop 2
SYMATTR InstName R3
SYMATTR Value 100
SYMBOL npn 560 160 R0
SYMATTR InstName Q1
SYMBOL res 608 400 R0
WINDOW 3 35 67 Left 2
SYMATTR Value 100
SYMATTR InstName Rpom
SYMBOL res 608 -32 R0
SYMATTR InstName Robc
SYMATTR Value {obc_param}
SYMBOL voltage 32 -32 R0
WINDOW 123 0 0 Left 0
WINDOW 39 0 0 Left 0
SYMATTR InstName V1
SYMATTR Value 24
SYMBOL Potentiometer 128 224 R0
SYMATTR InstName x1
SYMATTR SpiceLine R=400,Val=100
SYMBOL voltage 496 -32 R0
WINDOW 123 0 0 Left 0
WINDOW 39 0 0 Left 0
SYMATTR InstName V2
SYMATTR Value 24
SYMBOL voltage 272 80 R180
WINDOW 123 0 0 Left 0
WINDOW 39 0 0 Left 0
SYMATTR InstName V3
SYMATTR Value 24
SYMBOL voltage 272 512 R180
WINDOW 123 0 0 Left 0
WINDOW 39 0 0 Left 0
SYMATTR InstName V4
SYMATTR Value 24
SYMBOL Opamps\\UniversalOpamp2 272 208 R0
SYMATTR InstName U2
TEXT 40 200 Left 2 ;Rpot
TEXT -232 560 Left 2 !.op
TEXT -440 608 Left 2 !.step param obc_param 1 1791 1
TEXT -24 200 Left 2 ;Val
