Version 4
SHEET 1 880 680
SYMBOL voltage 16 64 R0
SYMATTR InstName V1
SYMBOL voltage 128 64 R0
SYMATTR InstName V2
SYMBOL voltage 240 64 R0
SYMATTR InstName V3
SYMBOL voltage 336 64 R0
SYMATTR InstName V4
SYMBOL res 0 224 R0
SYMATTR InstName R1
SYMBOL res 112 224 R0
SYMATTR InstName R2
SYMBOL res 224 208 R0
SYMATTR InstName R3
SYMBOL res 320 208 R0
SYMATTR InstName R4
SYMBOL Opamps\\UniversalOpamp2 496 192 R0
SYMATTR InstName U1
